-----  AeroDyn Driver v1.00.x Input File  --------------------------------------
UAE Phase 3 turbine (BEM)
-----  Input Configuration  ----------------------------------------------------
True          Echo            -  Echo input parameters to "<rootname>.ech"?  
"..\..\modules\openfast\reg_tests\r-test\glue-codes\openfast\5MW_OC4Semi_WSt_WavesWN\NRELOffshrBsline5MW_OC3Hywind_AeroDyn15.dat"   AD_InputFile    -  Name of the primary AeroDyn input file
-----  Turbine Data  -----------------------------------------------------------
       3     NumBlades       - Number of blades (-)
       1.5   HubRad          - Hub radius (m)
       90    HubHt           - Hub height (m)
      -15.0 Overhang    - Overhang (m)
       0     ShftTilt        - Shaft tilt (deg)
       0.0   Precone         - Blade precone (deg)      
       -----  I/O Settings  -----------------------------------------------------------
"Test01"      OutFileRoot     - Root name for any output files (use "" for .dvr rootname) (-)
True          TabDel          - When generating formatted output (OutForm=True), make output tab-delimited (fixed-width otherwise) (flag)
"ES10.3E2"    OutFmt          - Format used for text tabular output, excluding the time channel.  Resulting field should be 10 characters. (quoted string)
True          Beep            - Beep on exit (flag)
-----  Combined-Case Analysis  -------------------------------------------------
          1   NumCases        - Number of cases to run
WndSpeed       ShearExp       RotSpd        Pitch            Yaw           dT             Tmax
(m/s)            (-)          (rpm)         (deg)           (deg)          (s)            (s)
10.0	         0.0	       10.0        0.000           0.00          0.0125        100.00
