-----  AeroDyn Driver v1.00.x Input File  --------------------------------------
UAE Phase 3 turbine (BEM)
-----  Input Configuration  ----------------------------------------------------
True          Echo            -  Echo input parameters to "<rootname>.ech"?
"WP_VSP_WTurb/WP_Baseline_AeroDyn15_Dynin.dat"    AD_InputFile    -  Name of the primary AeroDyn input file
-----  Turbine Data  -----------------------------------------------------------
          3   NumBlades       - Number of blades (-)
      3.5   HubRad          - Hub radius (m)
     84.0   HubHt           - Hub height (m)
          3.3   Overhang        - Overhang (m)
          0   ShftTilt        - Shaft tilt (deg)
          0   Precone         - Blade precone (deg)
        1.0   MassAndInertia(1) - Total system mass (kg)
        2.0   MassAndInertia(2) - Sway-yaw coupling moment of inertia (kg/m)
        3.0   MassAndInertia(3) - Heave-pitch coupling moment of inertia (kg/m)
        4.0   MassAndInertia(4) - roll moment of inertia (about shaft and surge direction) (kg/m^2)
        5.0   MassAndInertia(5) - pitch moment of inertia (about sway direction) (kg/m^2)
        6.0   MassAndInertia(6) - yaw moment of inertia (about heave direction) (kg/m^2)
       3.14   CG_Pos          - Position of center of gravity along rotor shaft, measured from rotor hub (m).
-----  I/O Settings  -----------------------------------------------------------
"Test01"      OutFileRoot     - Root name for any output files (use "" for .dvr rootname) (-)
True          TabDel          - When generating formatted output (OutForm=True), make output tab-delimited (fixed-width otherwise) (flag)
"ES10.3E2"    OutFmt          - Format used for text tabular output, excluding the time channel.  Resulting field should be 10 characters. (quoted string)
True          Beep            - Beep on exit (flag)
-----  Combined-Case Analysis  -------------------------------------------------
          1   NumCases        - Number of cases to run
WndSpeed       ShearExp       RotSpd        Pitch            Yaw           dT             Tmax
(m/s)            (-)          (rpm)         (deg)           (deg)          (s)            (s)
5.0000000E+00  0.0000000E+00  7.1900000E+01  3.0000000E+00  0.0000000E+00  3.9700000E-03  8.3450000E+01

